MODEL 1
REMARK VINA RESULT:   -13.263      0.000      0.000
REMARK INTER + INTRA:         -19.130
REMARK INTER:                 -18.691
REMARK INTRA:                  -0.439
REMARK UNBOUND:                -0.439
REMARK Flexibility Score: inf
REMARK Active torsions [ 7 ] -> [ 7 ]
ROOT
ATOM      1  C1  LIG L   1      15.826  54.720  12.394  1.00  0.00     0.038 A 
ATOM      2  C2  LIG L   1      16.903  54.561  11.409  1.00  0.00    -0.029 A 
ATOM      3  C3  LIG L   1      17.883  53.538  11.636  1.00  0.00     0.007 A 
ATOM      4  C4  LIG L   1      17.808  52.692  12.800  1.00  0.00     0.024 A 
ATOM      5  C5  LIG L   1      16.762  52.842  13.757  1.00  0.00     0.035 A 
ATOM      6  C6  LIG L   1      15.766  53.878  13.534  1.00  0.00     0.047 A 
ATOM      7  C7  LIG L   1      17.030  55.435  10.139  1.00  0.00     0.045 C 
ENDROOT
BRANCH    1    8
ATOM      8  N1  LIG L   1      14.844  55.699  12.230  1.00  0.00    -0.283 N 
ATOM      9  H1  LIG L   1      13.965  55.450  11.861  1.00  0.00     0.155 HD
BRANCH    8   10
ATOM     10  C8  LIG L   1      15.092  57.018  12.580  1.00  0.00     0.220 A 
ATOM     11  C9  LIG L   1      14.263  59.246  12.728  1.00  0.00     0.077 A 
ATOM     12 C10  LIG L   1      15.520  59.705  13.246  1.00  0.00     0.048 A 
ATOM     13  N2  LIG L   1      14.098  57.915  12.416  1.00  0.00    -0.214 NA
ATOM     14 C11  LIG L   1      16.544  58.744  13.410  1.00  0.00     0.116 A 
ATOM     15  N3  LIG L   1      16.316  57.427  13.076  1.00  0.00    -0.223 NA
BRANCH   11   16
ATOM     16 C12  LIG L   1      13.086  60.141  12.495  1.00  0.00     0.019 A 
ATOM     17 C13  LIG L   1      11.814  62.294  12.826  1.00  0.00     0.020 A 
ATOM     18 C14  LIG L   1      12.972  61.470  13.083  1.00  0.00     0.013 A 
ATOM     19 C15  LIG L   1      10.776  61.768  11.979  1.00  0.00     0.111 A 
ATOM     20  N4  LIG L   1      10.898  60.488  11.417  1.00  0.00    -0.263 NA
ATOM     21 C16  LIG L   1      12.002  59.673  11.645  1.00  0.00     0.120 A 
ENDBRANCH   11   16
ENDBRANCH    8   10
ENDBRANCH    1    8
BRANCH    5   22
ATOM     22  N5  LIG L   1      16.748  51.952  14.892  1.00  0.00    -0.281 N 
ATOM     23 C17  LIG L   1      15.721  51.744  15.798  1.00  0.00     0.248 C 
ATOM     24  H2  LIG L   1      17.568  51.428  15.040  1.00  0.00     0.155 HD
ATOM     25  O1  LIG L   1      14.731  52.454  15.896  1.00  0.00    -0.270 OA
BRANCH   23   26
ATOM     26 C18  LIG L   1      15.814  50.589  16.743  1.00  0.00     0.037 A 
ATOM     27 C19  LIG L   1      17.075  49.872  16.943  1.00  0.00     0.013 A 
ATOM     28 C20  LIG L   1      14.627  50.172  17.459  1.00  0.00     0.013 A 
ATOM     29 C21  LIG L   1      17.134  48.750  17.847  1.00  0.00     0.002 A 
ATOM     30 C22  LIG L   1      14.688  49.073  18.345  1.00  0.00     0.002 A 
ATOM     31 C23  LIG L   1      15.925  48.340  18.559  1.00  0.00    -0.064 A 
BRANCH   31   32
ATOM     32 C24  LIG L   1      15.890  47.142  19.526  1.00  0.00    -0.043 C 
BRANCH   32   33
ATOM     33  N6  LIG L   1      17.160  46.794  20.230  1.00  0.00     0.380 N 
ATOM     34 C25  LIG L   1      17.474  47.817  21.295  1.00  0.00    -0.097 C 
ATOM     35 C26  LIG L   1      17.111  45.393  20.845  1.00  0.00    -0.097 C 
ATOM     36  H3  LIG L   1      17.902  46.800  19.530  1.00  0.00    -0.082 HD
ATOM     37 C27  LIG L   1      18.804  47.484  22.026  1.00  0.00    -0.098 C 
ATOM     38 C28  LIG L   1      18.456  45.036  21.558  1.00  0.00    -0.098 C 
ATOM     39  N7  LIG L   1      18.756  46.087  22.628  1.00  0.00     0.375 N 
ATOM     40 C29  LIG L   1      19.990  45.723  23.340  1.00  0.00    -0.096 C 
ATOM     41  H4  LIG L   1      18.001  46.105  23.313  1.00  0.00    -0.082 HD
ENDBRANCH   32   33
ENDBRANCH   31   32
ENDBRANCH   23   26
ENDBRANCH    5   22
TORSDOF 7
ENDMDL
MODEL 2
REMARK VINA RESULT:   -11.305      3.011     12.415
REMARK INTER + INTRA:         -16.369
REMARK INTER:                 -15.419
REMARK INTRA:                  -0.950
REMARK UNBOUND:                -0.439
REMARK Flexibility Score: inf
REMARK Active torsions [ 7 ] -> [ 7 ]
ROOT
ATOM      1  C1  LIG L   1      16.880  48.709  17.639  1.00  0.00     0.038 A 
ATOM      2  C2  LIG L   1      15.555  48.415  18.197  1.00  0.00    -0.029 A 
ATOM      3  C3  LIG L   1      14.487  49.336  17.931  1.00  0.00     0.007 A 
ATOM      4  C4  LIG L   1      14.716  50.516  17.134  1.00  0.00     0.024 A 
ATOM      5  C5  LIG L   1      16.000  50.803  16.587  1.00  0.00     0.035 A 
ATOM      6  C6  LIG L   1      17.087  49.874  16.856  1.00  0.00     0.047 A 
ATOM      7  C7  LIG L   1      15.251  47.163  19.052  1.00  0.00     0.045 C 
ENDROOT
BRANCH    1    8
ATOM      8  N1  LIG L   1      17.959  47.852  17.866  1.00  0.00    -0.283 N 
ATOM      9  H1  LIG L   1      18.020  47.004  17.367  1.00  0.00     0.155 HD
BRANCH    8   10
ATOM     10  C8  LIG L   1      18.944  48.180  18.784  1.00  0.00     0.220 A 
ATOM     11  C9  LIG L   1      20.958  49.372  19.228  1.00  0.00     0.077 A 
ATOM     12 C10  LIG L   1      20.983  48.878  20.574  1.00  0.00     0.048 A 
ATOM     13  N2  LIG L   1      19.935  49.004  18.383  1.00  0.00    -0.214 NA
ATOM     14 C11  LIG L   1      19.933  48.018  20.968  1.00  0.00     0.116 A 
ATOM     15  N3  LIG L   1      18.939  47.684  20.074  1.00  0.00    -0.223 NA
BRANCH   11   16
ATOM     16 C12  LIG L   1      21.999  50.287  18.661  1.00  0.00     0.019 A 
ATOM     17 C13  LIG L   1      24.219  50.732  17.547  1.00  0.00     0.020 A 
ATOM     18 C14  LIG L   1      23.246  49.806  18.081  1.00  0.00     0.013 A 
ATOM     19 C15  LIG L   1      23.924  52.139  17.606  1.00  0.00     0.111 A 
ATOM     20  N4  LIG L   1      22.719  52.591  18.165  1.00  0.00    -0.263 NA
ATOM     21 C16  LIG L   1      21.764  51.723  18.686  1.00  0.00     0.120 A 
ENDBRANCH   11   16
ENDBRANCH    8   10
ENDBRANCH    1    8
BRANCH    5   22
ATOM     22  N5  LIG L   1      16.149  51.997  15.793  1.00  0.00    -0.281 N 
ATOM     23 C17  LIG L   1      15.669  52.235  14.516  1.00  0.00     0.248 C 
ATOM     24  H2  LIG L   1      16.653  52.733  16.210  1.00  0.00     0.155 HD
ATOM     25  O1  LIG L   1      15.220  51.374  13.774  1.00  0.00    -0.270 OA
BRANCH   23   26
ATOM     26 C18  LIG L   1      15.708  53.629  13.978  1.00  0.00     0.037 A 
ATOM     27 C19  LIG L   1      16.969  54.367  13.870  1.00  0.00     0.013 A 
ATOM     28 C20  LIG L   1      14.469  54.257  13.570  1.00  0.00     0.013 A 
ATOM     29 C21  LIG L   1      16.976  55.717  13.364  1.00  0.00     0.002 A 
ATOM     30 C22  LIG L   1      14.480  55.580  13.074  1.00  0.00     0.002 A 
ATOM     31 C23  LIG L   1      15.716  56.337  12.961  1.00  0.00    -0.064 A 
BRANCH   31   32
ATOM     32 C24  LIG L   1      15.626  57.780  12.429  1.00  0.00    -0.043 C 
BRANCH   32   33
ATOM     33  N6  LIG L   1      14.355  58.523  12.680  1.00  0.00     0.380 N 
ATOM     34 C25  LIG L   1      14.644  59.910  13.197  1.00  0.00    -0.097 C 
ATOM     35 C26  LIG L   1      13.479  58.601  11.426  1.00  0.00    -0.097 C 
ATOM     36  H3  LIG L   1      13.837  58.002  13.388  1.00  0.00    -0.082 HD
ATOM     37 C27  LIG L   1      13.333  60.694  13.484  1.00  0.00    -0.098 C 
ATOM     38 C28  LIG L   1      12.143  59.362  11.712  1.00  0.00    -0.098 C 
ATOM     39  N7  LIG L   1      12.460  60.762  12.239  1.00  0.00     0.375 N 
ATOM     40 C29  LIG L   1      11.207  61.501  12.454  1.00  0.00    -0.096 C 
ATOM     41  H4  LIG L   1      13.004  61.276  11.546  1.00  0.00    -0.082 HD
ENDBRANCH   32   33
ENDBRANCH   31   32
ENDBRANCH   23   26
ENDBRANCH    5   22
TORSDOF 7
ENDMDL
MODEL 3
REMARK VINA RESULT:   -11.148      3.801     12.294
REMARK INTER + INTRA:         -16.148
REMARK INTER:                 -15.884
REMARK INTRA:                  -0.264
REMARK UNBOUND:                -0.439
REMARK Flexibility Score: inf
REMARK Active torsions [ 7 ] -> [ 7 ]
ROOT
ATOM      1  C1  LIG L   1      18.158  48.640  18.844  1.00  0.00     0.038 A 
ATOM      2  C2  LIG L   1      17.154  47.576  18.966  1.00  0.00    -0.029 A 
ATOM      3  C3  LIG L   1      16.041  47.588  18.060  1.00  0.00     0.007 A 
ATOM      4  C4  LIG L   1      15.919  48.617  17.058  1.00  0.00     0.024 A 
ATOM      5  C5  LIG L   1      16.895  49.649  16.934  1.00  0.00     0.035 A 
ATOM      6  C6  LIG L   1      18.024  49.644  17.851  1.00  0.00     0.047 A 
ATOM      7  C7  LIG L   1      17.236  46.445  20.017  1.00  0.00     0.045 C 
ENDROOT
BRANCH    1    8
ATOM      8  N1  LIG L   1      19.262  48.683  19.698  1.00  0.00    -0.283 N 
ATOM      9  H1  LIG L   1      19.140  48.949  20.639  1.00  0.00     0.155 HD
BRANCH    8   10
ATOM     10  C8  LIG L   1      20.528  48.357  19.237  1.00  0.00     0.220 A 
ATOM     11  C9  LIG L   1      22.648  49.129  18.472  1.00  0.00     0.077 A 
ATOM     12 C10  LIG L   1      23.098  47.780  18.284  1.00  0.00     0.048 A 
ATOM     13  N2  LIG L   1      21.376  49.365  18.946  1.00  0.00    -0.214 NA
ATOM     14 C11  LIG L   1      22.191  46.743  18.598  1.00  0.00     0.116 A 
ATOM     15  N3  LIG L   1      20.930  47.045  19.065  1.00  0.00    -0.223 NA
BRANCH   11   16
ATOM     16 C12  LIG L   1      23.489  50.333  18.181  1.00  0.00     0.019 A 
ATOM     17 C13  LIG L   1      25.006  51.694  16.694  1.00  0.00     0.020 A 
ATOM     18 C14  LIG L   1      24.207  50.513  16.926  1.00  0.00     0.013 A 
ATOM     19 C15  LIG L   1      25.074  52.686  17.736  1.00  0.00     0.111 A 
ATOM     20  N4  LIG L   1      24.377  52.502  18.939  1.00  0.00    -0.263 NA
ATOM     21 C16  LIG L   1      23.600  51.376  19.190  1.00  0.00     0.120 A 
ENDBRANCH   11   16
ENDBRANCH    8   10
ENDBRANCH    1    8
BRANCH    5   22
ATOM     22  N5  LIG L   1      16.710  50.638  15.901  1.00  0.00    -0.281 N 
ATOM     23 C17  LIG L   1      15.740  51.625  15.831  1.00  0.00     0.248 C 
ATOM     24  H2  LIG L   1      17.350  50.607  15.154  1.00  0.00     0.155 HD
ATOM     25  O1  LIG L   1      14.749  51.672  16.545  1.00  0.00    -0.270 OA
BRANCH   23   26
ATOM     26 C18  LIG L   1      15.885  52.708  14.812  1.00  0.00     0.037 A 
ATOM     27 C19  LIG L   1      14.828  53.701  14.603  1.00  0.00     0.013 A 
ATOM     28 C20  LIG L   1      17.091  52.762  14.013  1.00  0.00     0.013 A 
ATOM     29 C21  LIG L   1      14.986  54.725  13.601  1.00  0.00     0.002 A 
ATOM     30 C22  LIG L   1      17.242  53.768  13.032  1.00  0.00     0.002 A 
ATOM     31 C23  LIG L   1      16.208  54.762  12.801  1.00  0.00    -0.064 A 
BRANCH   31   32
ATOM     32 C24  LIG L   1      16.452  55.806  11.695  1.00  0.00    -0.043 C 
BRANCH   32   33
ATOM     33  N6  LIG L   1      15.808  57.143  11.862  1.00  0.00     0.380 N 
ATOM     34 C25  LIG L   1      14.312  56.998  11.996  1.00  0.00    -0.097 C 
ATOM     35 C26  LIG L   1      16.372  57.906  13.064  1.00  0.00    -0.097 C 
ATOM     36  H3  LIG L   1      16.018  57.685  11.024  1.00  0.00    -0.082 HD
ATOM     37 C27  LIG L   1      13.619  58.380  12.151  1.00  0.00    -0.098 C 
ATOM     38 C28  LIG L   1      15.702  59.312  13.211  1.00  0.00    -0.098 C 
ATOM     39  N7  LIG L   1      14.188  59.141  13.340  1.00  0.00     0.375 N 
ATOM     40 C29  LIG L   1      13.561  60.456  13.536  1.00  0.00    -0.096 C 
ATOM     41  H4  LIG L   1      13.974  58.573  14.161  1.00  0.00    -0.082 HD
ENDBRANCH   32   33
ENDBRANCH   31   32
ENDBRANCH   23   26
ENDBRANCH    5   22
TORSDOF 7
ENDMDL
